# generated using pymatgen
data_CaS
_symmetry_space_group_name_H-M   'P 1'
_cell_length_a   10.27071488
_cell_length_b   4.31727629
_cell_length_c   7.00730152
_cell_angle_alpha   90.00000000
_cell_angle_beta   40.36416067
_cell_angle_gamma   90.00000000
_symmetry_Int_Tables_number   1
_chemical_formula_structural   CaS
_chemical_formula_sum   'Ca4 S4'
_cell_volume   201.23210915
_cell_formula_units_Z   4
loop_
 _symmetry_equiv_pos_site_id
 _symmetry_equiv_pos_as_xyz
  1  'x, y, z'
loop_
 _atom_site_type_symbol
 _atom_site_label
 _atom_site_symmetry_multiplicity
 _atom_site_fract_x
 _atom_site_fract_y
 _atom_site_fract_z
 _atom_site_occupancy
  Ca  Ca0  1  0.74220219  0.00000000  0.49796459  1
  Ca  Ca1  1  0.75723784  0.00000000  0.01384997  1
  Ca  Ca2  1  0.85482213  0.00000000  0.56775417  1
  Ca  Ca3  1  0.16236392  0.00000000  0.93758564  1
  S  S4  1  0.24480665  0.50000000  0.59719145  1
  S  S5  1  0.49125026  0.50000000  0.72943907  1
  S  S6  1  0.29907895  0.93754087  0.00480068  1
  S  S7  1  0.36751018  -0.77622184  0.85541031  1
