# generated using pymatgen
data_CaS
_symmetry_space_group_name_H-M   'P 1'
_cell_length_a   3.68564236
_cell_length_b   3.68564236
_cell_length_c   15.35579881
_cell_angle_alpha   90.00000000
_cell_angle_beta   90.00000000
_cell_angle_gamma   90.00000000
_symmetry_Int_Tables_number   1
_chemical_formula_structural   CaS
_chemical_formula_sum   'Ca4 S4'
_cell_volume   208.59255047
_cell_formula_units_Z   4
loop_
 _symmetry_equiv_pos_site_id
 _symmetry_equiv_pos_as_xyz
  1  'x, y, z'
loop_
 _atom_site_type_symbol
 _atom_site_label
 _atom_site_symmetry_multiplicity
 _atom_site_fract_x
 _atom_site_fract_y
 _atom_site_fract_z
 _atom_site_occupancy
  Ca  Ca0  1  0.00000000  0.00000000  0.69648410  1
  Ca  Ca1  1  0.00000000  0.00000000  -0.51015023  1
  Ca  Ca2  1  0.50000000  0.50000000  0.12374252  1
  Ca  Ca3  1  0.50000000  0.50000000  -0.19429456  1
  S  S4  1  0.50000000  0.00000000  0.50000000  1
  S  S5  1  0.00000000  0.50000000  0.50000000  1
  S  S6  1  0.50000000  0.50000000  0.00000000  1
  S  S7  1  0.50000000  0.50000000  0.50000000  1
