# generated using pymatgen
data_CaS
_symmetry_space_group_name_H-M   'P 1'
_cell_length_a   19.44793605
_cell_length_b   8.49594597
_cell_length_c   2.30956607
_cell_angle_alpha   90.00000000
_cell_angle_beta   90.88073515
_cell_angle_gamma   90.00000000
_symmetry_Int_Tables_number   1
_chemical_formula_structural   CaS
_chemical_formula_sum   'Ca4 S4'
_cell_volume   381.56131639
_cell_formula_units_Z   4
loop_
 _symmetry_equiv_pos_site_id
 _symmetry_equiv_pos_as_xyz
  1  'x, y, z'
loop_
 _atom_site_type_symbol
 _atom_site_label
 _atom_site_symmetry_multiplicity
 _atom_site_fract_x
 _atom_site_fract_y
 _atom_site_fract_z
 _atom_site_occupancy
  Ca  Ca0  1  0.60771762  0.47595545  0.62702349  1
  Ca  Ca1  1  0.08609274  -0.80466971  0.84887579  1
  Ca  Ca2  1  0.56319801  0.07059844  0.72000702  1
  Ca  Ca3  1  0.06215786  -0.46501664  0.98132750  1
  S  S4  1  0.43152190  0.10900913  0.69752998  1
  S  S5  1  0.70903537  -0.84710916  0.84657957  1
  S  S6  1  0.36788074  0.25103231  0.25445445  1
  S  S7  1  0.52182134  -0.36925770  1.37539373  1
