# generated using pymatgen
data_CaS
_symmetry_space_group_name_H-M   'P 1'
_cell_length_a   7.27633400
_cell_length_b   2.06407768
_cell_length_c   9.88272799
_cell_angle_alpha   90.00000000
_cell_angle_beta   90.00000000
_cell_angle_gamma   90.00000000
_symmetry_Int_Tables_number   1
_chemical_formula_structural   CaS
_chemical_formula_sum   'Ca4 S4'
_cell_volume   148.42788724
_cell_formula_units_Z   4
loop_
 _symmetry_equiv_pos_site_id
 _symmetry_equiv_pos_as_xyz
  1  'x, y, z'
loop_
 _atom_site_type_symbol
 _atom_site_label
 _atom_site_symmetry_multiplicity
 _atom_site_fract_x
 _atom_site_fract_y
 _atom_site_fract_z
 _atom_site_occupancy
  Ca  Ca0  1  0.00000000  0.50000000  0.00000000  1
  Ca  Ca1  1  0.50000000  0.50000000  0.00000000  1
  Ca  Ca2  1  0.00000000  0.50000000  0.50000000  1
  Ca  Ca3  1  0.50000000  0.50000000  0.50000000  1
  S  S4  1  0.25000000  0.00000000  0.82281466  1
  S  S5  1  0.75000000  0.00000000  0.03231330  1
  S  S6  1  0.75000000  0.00000000  -0.12299762  1
  S  S7  1  0.25000000  0.00000000  1.16480022  1
