# generated using pymatgen
data_CaS
_symmetry_space_group_name_H-M   'P 1'
_cell_length_a   5.87128784
_cell_length_b   11.70885458
_cell_length_c   6.33523655
_cell_angle_alpha   90.00000000
_cell_angle_beta   80.53301980
_cell_angle_gamma   90.00000000
_symmetry_Int_Tables_number   1
_chemical_formula_structural   CaS
_chemical_formula_sum   'Ca4 S4'
_cell_volume   429.59094894
_cell_formula_units_Z   4
loop_
 _symmetry_equiv_pos_site_id
 _symmetry_equiv_pos_as_xyz
  1  'x, y, z'
loop_
 _atom_site_type_symbol
 _atom_site_label
 _atom_site_symmetry_multiplicity
 _atom_site_fract_x
 _atom_site_fract_y
 _atom_site_fract_z
 _atom_site_occupancy
  Ca  Ca0  1  0.00000000  0.42393794  0.00000000  1
  Ca  Ca1  1  0.50000000  0.71999759  0.00000000  1
  Ca  Ca2  1  0.00000000  0.75223352  0.50000000  1
  Ca  Ca3  1  0.50000000  0.53693091  0.50000000  1
  S  S4  1  0.00000000  0.89636811  0.00000000  1
  S  S5  1  0.50000000  1.00331381  0.00000000  1
  S  S6  1  0.00000000  0.09562007  0.50000000  1
  S  S7  1  0.50000000  0.94915572  0.50000000  1
