# generated using pymatgen
data_LiTiSe2O
_symmetry_space_group_name_H-M   'P 1'
_cell_length_a   4.52930014
_cell_length_b   4.52930014
_cell_length_c   22.77490607
_cell_angle_alpha   90.00000000
_cell_angle_beta   90.00000000
_cell_angle_gamma   120.00000000
_symmetry_Int_Tables_number   1
_chemical_formula_structural   LiTiSe2O
_chemical_formula_sum   'Li3 Ti3 Se6 O3'
_cell_volume   404.62193891
_cell_formula_units_Z   3
loop_
 _symmetry_equiv_pos_site_id
 _symmetry_equiv_pos_as_xyz
  1  'x, y, z'
loop_
 _atom_site_type_symbol
 _atom_site_label
 _atom_site_symmetry_multiplicity
 _atom_site_fract_x
 _atom_site_fract_y
 _atom_site_fract_z
 _atom_site_occupancy
  Li  Li0  1  0.00000000  0.00000000  0.10468564  1
  Li  Li1  1  0.00000000  0.00000000  0.75242763  1
  Li  Li2  1  0.00000000  0.00000000  0.48570102  1
  Ti  Ti3  1  0.50000000  0.00000000  0.61102837  1
  Ti  Ti4  1  0.00000000  0.50000000  0.68068383  1
  Ti  Ti5  1  0.50000000  0.50000000  0.61842018  1
  Se  Se6  1  0.33498921  0.00000000  0.22720002  1
  Se  Se7  1  0.00000000  0.58069144  0.18461904  1
  Se  Se8  1  -0.76189840  -0.76189840  0.76462070  1
  Se  Se9  1  -0.17626630  0.00000000  0.97742531  1
  Se  Se10  1  0.00000000  -0.87988818  0.03403455  1
  Se  Se11  1  0.76945833  0.76945833  0.71434398  1
  O  O12  1  0.00000000  0.00000000  0.62778054  1
  O  O13  1  0.33333333  0.66666667  0.76978768  1
  O  O14  1  0.66666667  0.33333333  0.06016200  1
