# generated using pymatgen
data_LiTiSe2O
_symmetry_space_group_name_H-M   'P 1'
_cell_length_a   4.89988889
_cell_length_b   4.89988889
_cell_length_c   22.97075662
_cell_angle_alpha   90.00000000
_cell_angle_beta   90.00000000
_cell_angle_gamma   120.00000000
_symmetry_Int_Tables_number   1
_chemical_formula_structural   LiTiSe2O
_chemical_formula_sum   'Li3 Ti3 Se6 O3'
_cell_volume   477.61548121
_cell_formula_units_Z   3
loop_
 _symmetry_equiv_pos_site_id
 _symmetry_equiv_pos_as_xyz
  1  'x, y, z'
loop_
 _atom_site_type_symbol
 _atom_site_label
 _atom_site_symmetry_multiplicity
 _atom_site_fract_x
 _atom_site_fract_y
 _atom_site_fract_z
 _atom_site_occupancy
  Li  Li0  1  0.00000000  0.00000000  0.10136545  1
  Li  Li1  1  0.00000000  0.00000000  0.74973851  1
  Li  Li2  1  0.00000000  0.00000000  0.47807842  1
  Ti  Ti3  1  0.50000000  0.00000000  0.59468230  1
  Ti  Ti4  1  0.00000000  0.50000000  0.70671033  1
  Ti  Ti5  1  0.50000000  0.50000000  0.60157899  1
  Se  Se6  1  0.34747440  0.00000000  0.21989430  1
  Se  Se7  1  0.00000000  0.55991261  0.17569553  1
  Se  Se8  1  -0.76812583  -0.76812583  0.81443125  1
  Se  Se9  1  -0.18193860  0.00000000  0.99818596  1
  Se  Se10  1  0.00000000  -0.89899335  0.04541850  1
  Se  Se11  1  0.80296287  0.80296287  0.73866852  1
  O  O12  1  0.00000000  0.00000000  0.61789390  1
  O  O13  1  0.33333333  0.66666667  0.78693160  1
  O  O14  1  0.66666667  0.33333333  0.05984022  1
