# generated using pymatgen
data_LiTiSe2O
_symmetry_space_group_name_H-M   'P 1'
_cell_length_a   4.61277370
_cell_length_b   4.61277370
_cell_length_c   21.75290755
_cell_angle_alpha   90.00000000
_cell_angle_beta   90.00000000
_cell_angle_gamma   120.00000000
_symmetry_Int_Tables_number   1
_chemical_formula_structural   LiTiSe2O
_chemical_formula_sum   'Li3 Ti3 Se6 O3'
_cell_volume   400.84109787
_cell_formula_units_Z   3
loop_
 _symmetry_equiv_pos_site_id
 _symmetry_equiv_pos_as_xyz
  1  'x, y, z'
loop_
 _atom_site_type_symbol
 _atom_site_label
 _atom_site_symmetry_multiplicity
 _atom_site_fract_x
 _atom_site_fract_y
 _atom_site_fract_z
 _atom_site_occupancy
  Li  Li0  1  0.00000000  0.00000000  0.05860701  1
  Li  Li1  1  0.00000000  0.00000000  0.55850848  1
  Li  Li2  1  0.00000000  0.00000000  0.45862273  1
  Ti  Ti3  1  0.50000000  0.00000000  0.61554401  1
  Ti  Ti4  1  0.00000000  0.50000000  0.96363395  1
  Ti  Ti5  1  0.50000000  0.50000000  0.58603894  1
  Se  Se6  1  0.31371080  -0.31371080  0.24292668  1
  Se  Se7  1  0.63690932  20.63690932  0.21542700  1
  Se  Se8  1  -20.72038631  -0.72038631  0.79411652  1
  Se  Se9  1  -0.21024746  0.21024746  0.98706178  1
  Se  Se10  1  -0.83495858  -20.83495858  0.01979804  1
  Se  Se11  1  20.75146529  0.75146529  0.75437007  1
  O  O12  1  0.00000000  0.00000000  0.65517816  1
  O  O13  1  0.33333333  0.66666667  0.74462448  1
  O  O14  1  0.66666667  0.33333333  0.00025223  1
