# generated using pymatgen
data_LiTiSe2O
_symmetry_space_group_name_H-M   'P 1'
_cell_length_a   2.65017954
_cell_length_b   2.65017954
_cell_length_c   24.95240743
_cell_angle_alpha   90.00000000
_cell_angle_beta   90.00000000
_cell_angle_gamma   120.00000000
_symmetry_Int_Tables_number   1
_chemical_formula_structural   LiTiSe2O
_chemical_formula_sum   'Li3 Ti3 Se6 O3'
_cell_volume   151.77270649
_cell_formula_units_Z   3
loop_
 _symmetry_equiv_pos_site_id
 _symmetry_equiv_pos_as_xyz
  1  'x, y, z'
loop_
 _atom_site_type_symbol
 _atom_site_label
 _atom_site_symmetry_multiplicity
 _atom_site_fract_x
 _atom_site_fract_y
 _atom_site_fract_z
 _atom_site_occupancy
  Li  Li0  1  0.00000000  0.00000000  0.16771757  1
  Li  Li1  1  0.00000000  0.00000000  0.80818123  1
  Li  Li2  1  0.00000000  0.00000000  0.56284022  1
  Ti  Ti3  1  0.50000000  0.00000000  0.52402910  1
  Ti  Ti4  1  0.00000000  0.50000000  0.73000840  1
  Ti  Ti5  1  0.50000000  0.50000000  0.53099506  1
  Se  Se6  1  0.41394150  -0.41394150  0.28352963  1
  Se  Se7  1  0.61526133  20.61526133  0.13459935  1
  Se  Se8  1  -20.68691396  -0.68691396  0.71745168  1
  Se  Se9  1  -0.12882613  0.12882613  0.91940285  1
  Se  Se10  1  -0.94742884  -20.94742884  0.07890157  1
  Se  Se11  1  20.85600136  0.85600136  0.66237115  1
  O  O12  1  0.50000000  0.00000000  0.57262778  1
  O  O13  1  0.00000000  0.50000000  0.81626406  1
  O  O14  1  0.50000000  0.50000000  0.10706958  1
