# generated using pymatgen
data_LiTiSe2O
_symmetry_space_group_name_H-M   'P 1'
_cell_length_a   4.45243085
_cell_length_b   4.45243085
_cell_length_c   24.63202873
_cell_angle_alpha   90.00000000
_cell_angle_beta   90.00000000
_cell_angle_gamma   120.00000000
_symmetry_Int_Tables_number   1
_chemical_formula_structural   LiTiSe2O
_chemical_formula_sum   'Li3 Ti3 Se6 O3'
_cell_volume   422.88782453
_cell_formula_units_Z   3
loop_
 _symmetry_equiv_pos_site_id
 _symmetry_equiv_pos_as_xyz
  1  'x, y, z'
loop_
 _atom_site_type_symbol
 _atom_site_label
 _atom_site_symmetry_multiplicity
 _atom_site_fract_x
 _atom_site_fract_y
 _atom_site_fract_z
 _atom_site_occupancy
  Li  Li0  1  0.00000000  0.00000000  0.81047529  1
  Li  Li1  1  0.66666667  0.33333333  0.50538088  1
  Li  Li2  1  0.33333333  0.66666667  1.07916216  1
  Ti  Ti3  1  0.00000000  0.00000000  0.64850022  1
  Ti  Ti4  1  0.66666667  0.33333333  0.97972728  1
  Ti  Ti5  1  0.33333333  0.66666667  0.97771742  1
  Se  Se6  1  0.00000000  0.00000000  0.07472846  1
  Se  Se7  1  0.66666667  0.33333333  0.42747599  1
  Se  Se8  1  0.33333333  0.66666667  0.89398393  1
  Se  Se9  1  0.00000000  0.00000000  0.03137427  1
  Se  Se10  1  0.66666667  0.33333333  1.30751562  1
  Se  Se11  1  0.33333333  0.66666667  1.29485267  1
  O  O12  1  0.00000000  0.00000000  0.48716033  1
  O  O13  1  0.66666667  0.33333333  0.36862312  1
  O  O14  1  0.33333333  0.66666667  1.14691900  1
