# generated using pymatgen
data_LiTiSe2O
_symmetry_space_group_name_H-M   'P 1'
_cell_length_a   4.95276076
_cell_length_b   4.95276076
_cell_length_c   22.35756342
_cell_angle_alpha   90.00000000
_cell_angle_beta   90.00000000
_cell_angle_gamma   120.00000000
_symmetry_Int_Tables_number   1
_chemical_formula_structural   LiTiSe2O
_chemical_formula_sum   'Li3 Ti3 Se6 O3'
_cell_volume   474.95209101
_cell_formula_units_Z   3
loop_
 _symmetry_equiv_pos_site_id
 _symmetry_equiv_pos_as_xyz
  1  'x, y, z'
loop_
 _atom_site_type_symbol
 _atom_site_label
 _atom_site_symmetry_multiplicity
 _atom_site_fract_x
 _atom_site_fract_y
 _atom_site_fract_z
 _atom_site_occupancy
  Li  Li0  1  0.00000000  0.00000000  0.48310949  1
  Li  Li1  1  0.00000000  0.00000000  0.59234618  1
  Li  Li2  1  0.00000000  0.00000000  0.42671635  1
  Ti  Ti3  1  0.50000000  0.00000000  0.90181360  1
  Ti  Ti4  1  0.00000000  0.50000000  0.92737115  1
  Ti  Ti5  1  0.50000000  0.50000000  0.00760802  1
  Se  Se6  1  0.31225083  0.00000000  0.22554619  1
  Se  Se7  1  0.00000000  0.67042631  0.19694482  1
  Se  Se8  1  -0.82545958  -0.82545958  0.64169471  1
  Se  Se9  1  -0.25045756  0.00000000  0.99734088  1
  Se  Se10  1  0.00000000  -0.81066257  0.92918298  1
  Se  Se11  1  0.58912623  0.58912623  0.76508885  1
  O  O12  1  0.00000000  0.00000000  0.63156227  1
  O  O13  1  0.33333333  0.66666667  0.80193814  1
  O  O14  1  0.66666667  0.33333333  0.00153433  1
