# generated using pymatgen
data_LiTiSe2O
_symmetry_space_group_name_H-M   'P 1'
_cell_length_a   4.70186635
_cell_length_b   4.70186635
_cell_length_c   23.06646578
_cell_angle_alpha   90.00000000
_cell_angle_beta   90.00000000
_cell_angle_gamma   120.00000000
_symmetry_Int_Tables_number   1
_chemical_formula_structural   LiTiSe2O
_chemical_formula_sum   'Li3 Ti3 Se6 O3'
_cell_volume   441.62357628
_cell_formula_units_Z   3
loop_
 _symmetry_equiv_pos_site_id
 _symmetry_equiv_pos_as_xyz
  1  'x, y, z'
loop_
 _atom_site_type_symbol
 _atom_site_label
 _atom_site_symmetry_multiplicity
 _atom_site_fract_x
 _atom_site_fract_y
 _atom_site_fract_z
 _atom_site_occupancy
  Li  Li0  1  0.00000000  0.00000000  0.06302883  1
  Li  Li1  1  0.00000000  0.00000000  0.54416662  1
  Li  Li2  1  0.00000000  0.00000000  0.46890810  1
  Ti  Ti3  1  0.50000000  0.00000000  0.65162881  1
  Ti  Ti4  1  0.00000000  0.50000000  0.95441749  1
  Ti  Ti5  1  0.50000000  0.50000000  0.59936916  1
  Se  Se6  1  0.29910439  0.00000000  0.23535934  1
  Se  Se7  1  0.00000000  0.62251281  0.23898956  1
  Se  Se8  1  -0.71742829  -0.71742829  0.80893534  1
  Se  Se9  1  -0.21131876  0.00000000  0.99089429  1
  Se  Se10  1  0.00000000  -0.83726792  0.02372840  1
  Se  Se11  1  0.76362007  0.76362007  0.77436482  1
  O  O12  1  0.00000000  0.00000000  0.66923733  1
  O  O13  1  0.33333333  0.66666667  0.73708251  1
  O  O14  1  0.66666667  0.33333333  0.00238273  1
