# generated using pymatgen
data_LiTiSe2O
_symmetry_space_group_name_H-M   'P 1'
_cell_length_a   2.64191351
_cell_length_b   2.64191351
_cell_length_c   24.59251286
_cell_angle_alpha   90.00000000
_cell_angle_beta   90.00000000
_cell_angle_gamma   120.00000000
_symmetry_Int_Tables_number   1
_chemical_formula_structural   LiTiSe2O
_chemical_formula_sum   'Li3 Ti3 Se6 O3'
_cell_volume   148.65199142
_cell_formula_units_Z   3
loop_
 _symmetry_equiv_pos_site_id
 _symmetry_equiv_pos_as_xyz
  1  'x, y, z'
loop_
 _atom_site_type_symbol
 _atom_site_label
 _atom_site_symmetry_multiplicity
 _atom_site_fract_x
 _atom_site_fract_y
 _atom_site_fract_z
 _atom_site_occupancy
  Li  Li0  1  0.00000000  0.00000000  0.13888270  1
  Li  Li1  1  0.00000000  0.00000000  0.81809116  1
  Li  Li2  1  0.00000000  0.00000000  0.54024454  1
  Ti  Ti3  1  0.50000000  0.00000000  0.51670588  1
  Ti  Ti4  1  0.00000000  0.50000000  0.76717586  1
  Ti  Ti5  1  0.50000000  0.50000000  0.52711407  1
  Se  Se6  1  0.40151553  -0.40151553  0.25833050  1
  Se  Se7  1  0.60066860  20.60066860  0.13953543  1
  Se  Se8  1  -20.68181335  -0.68181335  0.73524938  1
  Se  Se9  1  -0.12373614  0.12373614  0.94040973  1
  Se  Se10  1  -0.94407550  -20.94407550  0.08251475  1
  Se  Se11  1  20.82484883  0.82484883  0.65938775  1
  O  O12  1  0.50000000  0.00000000  0.58454619  1
  O  O13  1  0.00000000  0.50000000  0.81606624  1
  O  O14  1  0.50000000  0.50000000  0.10111508  1
