# generated using pymatgen
data_LiTiSe2O
_symmetry_space_group_name_H-M   'P 1'
_cell_length_a   5.10593236
_cell_length_b   5.10593236
_cell_length_c   23.42921774
_cell_angle_alpha   90.00000000
_cell_angle_beta   90.00000000
_cell_angle_gamma   120.00000000
_symmetry_Int_Tables_number   1
_chemical_formula_structural   LiTiSe2O
_chemical_formula_sum   'Li3 Ti3 Se6 O3'
_cell_volume   528.97912686
_cell_formula_units_Z   3
loop_
 _symmetry_equiv_pos_site_id
 _symmetry_equiv_pos_as_xyz
  1  'x, y, z'
loop_
 _atom_site_type_symbol
 _atom_site_label
 _atom_site_symmetry_multiplicity
 _atom_site_fract_x
 _atom_site_fract_y
 _atom_site_fract_z
 _atom_site_occupancy
  Li  Li0  1  0.00000000  0.00000000  0.09347482  1
  Li  Li1  1  0.00000000  0.00000000  0.74430946  1
  Li  Li2  1  0.00000000  0.00000000  0.49601601  1
  Ti  Ti3  1  0.50000000  0.00000000  0.60067402  1
  Ti  Ti4  1  0.00000000  0.50000000  0.68509625  1
  Ti  Ti5  1  0.50000000  0.50000000  0.57979717  1
  Se  Se6  1  0.50000000  0.00000000  0.20461811  1
  Se  Se7  1  0.00000000  0.50000000  0.18958908  1
  Se  Se8  1  0.50000000  0.50000000  0.78087911  1
  Se  Se9  1  0.50000000  0.00000000  0.99951665  1
  Se  Se10  1  0.00000000  0.50000000  0.03414428  1
  Se  Se11  1  0.50000000  0.50000000  0.72926827  1
  O  O12  1  0.00000000  0.00000000  0.66428729  1
  O  O13  1  0.00000000  0.00000000  0.78777965  1
  O  O14  1  0.00000000  0.00000000  0.04904912  1
