# generated using pymatgen
data_LiTiSe2O
_symmetry_space_group_name_H-M   'P 1'
_cell_length_a   4.40559882
_cell_length_b   4.40559882
_cell_length_c   21.96802268
_cell_angle_alpha   90.00000000
_cell_angle_beta   90.00000000
_cell_angle_gamma   120.00000000
_symmetry_Int_Tables_number   1
_chemical_formula_structural   LiTiSe2O
_chemical_formula_sum   'Li3 Ti3 Se6 O3'
_cell_volume   369.25934451
_cell_formula_units_Z   3
loop_
 _symmetry_equiv_pos_site_id
 _symmetry_equiv_pos_as_xyz
  1  'x, y, z'
loop_
 _atom_site_type_symbol
 _atom_site_label
 _atom_site_symmetry_multiplicity
 _atom_site_fract_x
 _atom_site_fract_y
 _atom_site_fract_z
 _atom_site_occupancy
  Li  Li0  1  0.00000000  0.00000000  0.06393934  1
  Li  Li1  1  0.00000000  0.00000000  0.55509126  1
  Li  Li2  1  0.00000000  0.00000000  0.44813603  1
  Ti  Ti3  1  0.50000000  0.00000000  0.65541207  1
  Ti  Ti4  1  0.00000000  0.50000000  0.94911810  1
  Ti  Ti5  1  0.50000000  0.50000000  0.59567006  1
  Se  Se6  1  0.32177048  -0.32177048  0.21705821  1
  Se  Se7  1  0.62549664  20.62549664  0.23003853  1
  Se  Se8  1  -20.74520968  -0.74520968  0.80437535  1
  Se  Se9  1  -0.22939075  0.22939075  0.99249432  1
  Se  Se10  1  -0.82992371  -20.82992371  0.02007727  1
  Se  Se11  1  20.75453632  0.75453632  0.76371745  1
  O  O12  1  0.00000000  0.00000000  0.65602251  1
  O  O13  1  0.33333333  0.66666667  0.74378071  1
  O  O14  1  0.66666667  0.33333333  0.03194812  1
