# generated using pymatgen
data_LiTiSe2O
_symmetry_space_group_name_H-M   'P 1'
_cell_length_a   4.71175243
_cell_length_b   4.71175243
_cell_length_c   21.81737109
_cell_angle_alpha   90.00000000
_cell_angle_beta   90.00000000
_cell_angle_gamma   120.00000000
_symmetry_Int_Tables_number   1
_chemical_formula_structural   LiTiSe2O
_chemical_formula_sum   'Li3 Ti3 Se6 O3'
_cell_volume   419.46716979
_cell_formula_units_Z   3
loop_
 _symmetry_equiv_pos_site_id
 _symmetry_equiv_pos_as_xyz
  1  'x, y, z'
loop_
 _atom_site_type_symbol
 _atom_site_label
 _atom_site_symmetry_multiplicity
 _atom_site_fract_x
 _atom_site_fract_y
 _atom_site_fract_z
 _atom_site_occupancy
  Li  Li0  1  0.00000000  0.00000000  0.41529659  1
  Li  Li1  1  0.33333333  0.66666667  0.72448044  1
  Li  Li2  1  0.66666667  0.33333333  0.39216223  1
  Ti  Ti3  1  0.00000000  0.00000000  0.84979888  1
  Ti  Ti4  1  0.00000000  0.00000000  0.15886997  1
  Ti  Ti5  1  0.00000000  0.00000000  0.29535357  1
  Se  Se6  1  0.00000000  0.00000000  0.73848321  1
  Se  Se7  1  0.00000000  0.00000000  0.00366465  1
  Se  Se8  1  0.33333333  0.66666667  0.79222777  1
  Se  Se9  1  0.66666667  0.33333333  0.73299397  1
  Se  Se10  1  0.33333333  0.66666667  0.88019056  1
  Se  Se11  1  0.66666667  0.33333333  0.80347897  1
  O  O12  1  0.00000000  0.00000000  0.45532756  1
  O  O13  1  0.33333333  0.66666667  0.15413515  1
  O  O14  1  0.66666667  0.33333333  0.04979145  1
