# generated using pymatgen
data_LiTiSe2O
_symmetry_space_group_name_H-M   'P 1'
_cell_length_a   4.40468059
_cell_length_b   4.40468059
_cell_length_c   22.37780188
_cell_angle_alpha   90.00000000
_cell_angle_beta   90.00000000
_cell_angle_gamma   120.00000000
_symmetry_Int_Tables_number   1
_chemical_formula_structural   LiTiSe2O
_chemical_formula_sum   'Li3 Ti3 Se6 O3'
_cell_volume   375.99052252
_cell_formula_units_Z   3
loop_
 _symmetry_equiv_pos_site_id
 _symmetry_equiv_pos_as_xyz
  1  'x, y, z'
loop_
 _atom_site_type_symbol
 _atom_site_label
 _atom_site_symmetry_multiplicity
 _atom_site_fract_x
 _atom_site_fract_y
 _atom_site_fract_z
 _atom_site_occupancy
  Li  Li0  1  0.00000000  0.00000000  0.07550134  1
  Li  Li1  1  0.00000000  0.00000000  0.54025366  1
  Li  Li2  1  0.00000000  0.00000000  0.46227756  1
  Ti  Ti3  1  0.50000000  0.00000000  0.62507461  1
  Ti  Ti4  1  0.00000000  0.50000000  0.66522685  1
  Ti  Ti5  1  0.50000000  0.50000000  0.57812005  1
  Se  Se6  1  0.30639358  -0.30639358  0.22357739  1
  Se  Se7  1  0.59306570  20.59306570  0.20866061  1
  Se  Se8  1  -20.70507237  -0.70507237  0.79303283  1
  Se  Se9  1  -0.19061440  0.19061440  0.99215594  1
  Se  Se10  1  -0.86767369  -20.86767369  0.00082757  1
  Se  Se11  1  20.76864414  0.76864414  0.78237454  1
  O  O12  1  0.00000000  0.00000000  0.66896946  1
  O  O13  1  0.33333333  0.66666667  0.76452954  1
  O  O14  1  0.66666667  0.33333333  0.04253738  1
