# generated using pymatgen
data_CaS
_symmetry_space_group_name_H-M   'P 1'
_cell_length_a   11.73873158
_cell_length_b   12.36862861
_cell_length_c   2.30365001
_cell_angle_alpha   90.00000000
_cell_angle_beta   90.00000000
_cell_angle_gamma   90.00000000
_symmetry_Int_Tables_number   1
_chemical_formula_structural   CaS
_chemical_formula_sum   'Ca4 S4'
_cell_volume   334.47157884
_cell_formula_units_Z   4
loop_
 _symmetry_equiv_pos_site_id
 _symmetry_equiv_pos_as_xyz
  1  'x, y, z'
loop_
 _atom_site_type_symbol
 _atom_site_label
 _atom_site_symmetry_multiplicity
 _atom_site_fract_x
 _atom_site_fract_y
 _atom_site_fract_z
 _atom_site_occupancy
  Ca  Ca0  1  0.62242396  0.88818641  0.63430437  1
  Ca  Ca1  1  -0.38538403  -0.94431463  1.49193796  1
  Ca  Ca2  1  1.25669835  -0.97854720  0.53520231  1
  Ca  Ca3  1  -0.01640282  0.26022088  0.66418443  1
  S  S4  1  0.66062643  0.35662601  0.93415206  1
  S  S5  1  0.16167621  -0.12751243  1.33295787  1
  S  S6  1  1.14028826  -0.61030929  0.82830751  1
  S  S7  1  -0.61194184  0.06324888  0.08718337  1
