# generated using pymatgen
data_CaS
_symmetry_space_group_name_H-M   'P 1'
_cell_length_a   13.24116198
_cell_length_b   4.27016531
_cell_length_c   4.23483642
_cell_angle_alpha   90.00000000
_cell_angle_beta   90.00000000
_cell_angle_gamma   90.00000000
_symmetry_Int_Tables_number   1
_chemical_formula_structural   CaS
_chemical_formula_sum   'Ca4 S4'
_cell_volume   239.44591150
_cell_formula_units_Z   4
loop_
 _symmetry_equiv_pos_site_id
 _symmetry_equiv_pos_as_xyz
  1  'x, y, z'
loop_
 _atom_site_type_symbol
 _atom_site_label
 _atom_site_symmetry_multiplicity
 _atom_site_fract_x
 _atom_site_fract_y
 _atom_site_fract_z
 _atom_site_occupancy
  Ca  Ca0  1  0.25000000  0.89210550  0.64820762  1
  Ca  Ca1  1  0.75000000  -0.66741097  0.53232067  1
  Ca  Ca2  1  0.25000000  0.97126405  1.23745117  1
  Ca  Ca3  1  0.75000000  -0.42193818  0.85656818  1
  S  S4  1  0.00000000  0.00000000  0.01314720  1
  S  S5  1  0.50000000  0.00000000  0.65031853  1
  S  S6  1  0.00000000  0.50000000  0.59145257  1
  S  S7  1  0.50000000  0.50000000  1.36190852  1
