# generated using pymatgen
data_LiTiSe2O
_symmetry_space_group_name_H-M   'P 1'
_cell_length_a   2.68642838
_cell_length_b   2.68642838
_cell_length_c   25.17240602
_cell_angle_alpha   90.00000000
_cell_angle_beta   90.00000000
_cell_angle_gamma   120.00000000
_symmetry_Int_Tables_number   1
_chemical_formula_structural   LiTiSe2O
_chemical_formula_sum   'Li3 Ti3 Se6 O3'
_cell_volume   157.32795291
_cell_formula_units_Z   3
loop_
 _symmetry_equiv_pos_site_id
 _symmetry_equiv_pos_as_xyz
  1  'x, y, z'
loop_
 _atom_site_type_symbol
 _atom_site_label
 _atom_site_symmetry_multiplicity
 _atom_site_fract_x
 _atom_site_fract_y
 _atom_site_fract_z
 _atom_site_occupancy
  Li  Li0  1  0.00000000  0.00000000  0.17089525  1
  Li  Li1  1  0.00000000  0.00000000  0.79432620  1
  Li  Li2  1  0.00000000  0.00000000  0.54195844  1
  Ti  Ti3  1  0.50000000  0.00000000  0.54345511  1
  Ti  Ti4  1  0.00000000  0.50000000  0.77045106  1
  Ti  Ti5  1  0.50000000  0.50000000  0.52741970  1
  Se  Se6  1  0.38772877  0.00000000  0.28512804  1
  Se  Se7  1  0.00000000  0.63521616  0.11790865  1
  Se  Se8  1  -0.68409102  -0.68409102  0.70803774  1
  Se  Se9  1  -0.13973148  0.00000000  0.91757815  1
  Se  Se10  1  0.00000000  -0.96489087  0.10357703  1
  Se  Se11  1  0.85972080  0.85972080  0.65931249  1
  O  O12  1  0.00000000  0.00000000  0.57396423  1
  O  O13  1  0.33333333  0.66666667  0.81347446  1
  O  O14  1  0.66666667  0.33333333  0.09530903  1
