# generated using pymatgen
data_LiTiSe2O
_symmetry_space_group_name_H-M   'P 1'
_cell_length_a   4.37619411
_cell_length_b   4.37619411
_cell_length_c   23.20545258
_cell_angle_alpha   90.00000000
_cell_angle_beta   90.00000000
_cell_angle_gamma   120.00000000
_symmetry_Int_Tables_number   1
_chemical_formula_structural   LiTiSe2O
_chemical_formula_sum   'Li3 Ti3 Se6 O3'
_cell_volume   384.86979527
_cell_formula_units_Z   3
loop_
 _symmetry_equiv_pos_site_id
 _symmetry_equiv_pos_as_xyz
  1  'x, y, z'
loop_
 _atom_site_type_symbol
 _atom_site_label
 _atom_site_symmetry_multiplicity
 _atom_site_fract_x
 _atom_site_fract_y
 _atom_site_fract_z
 _atom_site_occupancy
  Li  Li0  1  0.00000000  0.00000000  0.05770320  1
  Li  Li1  1  0.00000000  0.00000000  0.72971533  1
  Li  Li2  1  0.00000000  0.00000000  0.48527864  1
  Ti  Ti3  1  0.50000000  0.00000000  0.62114578  1
  Ti  Ti4  1  0.00000000  0.50000000  0.67776584  1
  Ti  Ti5  1  0.50000000  0.50000000  0.58679905  1
  Se  Se6  1  0.31840554  -0.31840554  0.21920513  1
  Se  Se7  1  0.60638211  20.60638211  0.20369535  1
  Se  Se8  1  -20.71348244  -0.71348244  0.79369201  1
  Se  Se9  1  -0.19921523  0.19921523  0.98812027  1
  Se  Se10  1  -0.86566227  -20.86566227  0.00201186  1
  Se  Se11  1  20.77185460  0.77185460  0.75363761  1
  O  O12  1  0.00000000  0.00000000  0.67145862  1
  O  O13  1  0.33333333  0.66666667  0.74937776  1
  O  O14  1  0.66666667  0.33333333  0.04095756  1
