# generated using pymatgen
data_LiTiSe2O
_symmetry_space_group_name_H-M   'P 1'
_cell_length_a   4.93247186
_cell_length_b   4.93247186
_cell_length_c   23.23617452
_cell_angle_alpha   90.00000000
_cell_angle_beta   90.00000000
_cell_angle_gamma   120.00000000
_symmetry_Int_Tables_number   1
_chemical_formula_structural   LiTiSe2O
_chemical_formula_sum   'Li3 Ti3 Se6 O3'
_cell_volume   489.58093095
_cell_formula_units_Z   3
loop_
 _symmetry_equiv_pos_site_id
 _symmetry_equiv_pos_as_xyz
  1  'x, y, z'
loop_
 _atom_site_type_symbol
 _atom_site_label
 _atom_site_symmetry_multiplicity
 _atom_site_fract_x
 _atom_site_fract_y
 _atom_site_fract_z
 _atom_site_occupancy
  Li  Li0  1  0.00000000  0.00000000  0.08679875  1
  Li  Li1  1  0.00000000  0.00000000  0.75315827  1
  Li  Li2  1  0.00000000  0.00000000  0.49677494  1
  Ti  Ti3  1  0.50000000  0.00000000  0.60548293  1
  Ti  Ti4  1  0.00000000  0.50000000  0.69450479  1
  Ti  Ti5  1  0.50000000  0.50000000  0.56727140  1
  Se  Se6  1  0.50000000  0.00000000  0.20509265  1
  Se  Se7  1  0.00000000  0.50000000  0.18621513  1
  Se  Se8  1  0.50000000  0.50000000  0.78244675  1
  Se  Se9  1  0.50000000  0.00000000  0.99963081  1
  Se  Se10  1  0.00000000  0.50000000  0.00010036  1
  Se  Se11  1  0.50000000  0.50000000  0.72727519  1
  O  O12  1  0.00000000  0.00000000  0.68193188  1
  O  O13  1  0.33333333  0.66666667  0.78448428  1
  O  O14  1  0.66666667  0.33333333  0.05401379  1
