# generated using pymatgen
data_LiTiSe2O
_symmetry_space_group_name_H-M   'P 1'
_cell_length_a   5.12618822
_cell_length_b   5.12618822
_cell_length_c   22.85356782
_cell_angle_alpha   90.00000000
_cell_angle_beta   90.00000000
_cell_angle_gamma   120.00000000
_symmetry_Int_Tables_number   1
_chemical_formula_structural   LiTiSe2O
_chemical_formula_sum   'Li3 Ti3 Se6 O3'
_cell_volume   520.08429366
_cell_formula_units_Z   3
loop_
 _symmetry_equiv_pos_site_id
 _symmetry_equiv_pos_as_xyz
  1  'x, y, z'
loop_
 _atom_site_type_symbol
 _atom_site_label
 _atom_site_symmetry_multiplicity
 _atom_site_fract_x
 _atom_site_fract_y
 _atom_site_fract_z
 _atom_site_occupancy
  Li  Li0  1  0.00000000  0.00000000  0.08972497  1
  Li  Li1  1  0.00000000  0.00000000  0.74942236  1
  Li  Li2  1  0.00000000  0.00000000  0.49770234  1
  Ti  Ti3  1  0.50000000  0.00000000  0.61979275  1
  Ti  Ti4  1  0.00000000  0.50000000  0.71041071  1
  Ti  Ti5  1  0.50000000  0.50000000  0.57479474  1
  Se  Se6  1  0.50000000  0.00000000  0.19795484  1
  Se  Se7  1  0.00000000  0.50000000  0.19167073  1
  Se  Se8  1  0.50000000  0.50000000  0.77515591  1
  Se  Se9  1  0.50000000  0.00000000  0.97847852  1
  Se  Se10  1  0.00000000  0.50000000  0.01811326  1
  Se  Se11  1  0.50000000  0.50000000  0.72309673  1
  O  O12  1  0.00000000  0.00000000  0.68066855  1
  O  O13  1  0.33333333  0.66666667  0.79421892  1
  O  O14  1  0.66666667  0.33333333  0.05467957  1
