# generated using pymatgen
data_LiTiSe2O
_symmetry_space_group_name_H-M   'P 1'
_cell_length_a   2.67571040
_cell_length_b   2.67571040
_cell_length_c   25.04319082
_cell_angle_alpha   90.00000000
_cell_angle_beta   90.00000000
_cell_angle_gamma   120.00000000
_symmetry_Int_Tables_number   1
_chemical_formula_structural   LiTiSe2O
_chemical_formula_sum   'Li3 Ti3 Se6 O3'
_cell_volume   155.27391666
_cell_formula_units_Z   3
loop_
 _symmetry_equiv_pos_site_id
 _symmetry_equiv_pos_as_xyz
  1  'x, y, z'
loop_
 _atom_site_type_symbol
 _atom_site_label
 _atom_site_symmetry_multiplicity
 _atom_site_fract_x
 _atom_site_fract_y
 _atom_site_fract_z
 _atom_site_occupancy
  Li  Li0  1  0.00000000  0.00000000  0.15255091  1
  Li  Li1  1  0.00000000  0.00000000  0.81589654  1
  Li  Li2  1  0.00000000  0.00000000  0.55843383  1
  Ti  Ti3  1  0.50000000  0.00000000  0.52013764  1
  Ti  Ti4  1  0.00000000  0.50000000  0.75934655  1
  Ti  Ti5  1  0.50000000  0.50000000  0.53307974  1
  Se  Se6  1  0.00000000  0.00000000  0.26307684  1
  Se  Se7  1  0.50000000  0.00000000  0.13384990  1
  Se  Se8  1  0.00000000  0.50000000  0.70916894  1
  Se  Se9  1  0.50000000  0.50000000  0.94060687  1
  Se  Se10  1  0.33333333  0.66666667  0.10316788  1
  Se  Se11  1  0.66666667  0.33333333  0.65931050  1
  O  O12  1  0.50000000  0.00000000  0.59310364  1
  O  O13  1  0.00000000  0.50000000  0.81841708  1
  O  O14  1  0.50000000  0.50000000  0.12201758  1
