# generated using pymatgen
data_LiTiSe2O
_symmetry_space_group_name_H-M   'P 1'
_cell_length_a   2.66532258
_cell_length_b   2.66532258
_cell_length_c   24.43243026
_cell_angle_alpha   90.00000000
_cell_angle_beta   90.00000000
_cell_angle_gamma   120.00000000
_symmetry_Int_Tables_number   1
_chemical_formula_structural   LiTiSe2O
_chemical_formula_sum   'Li3 Ti3 Se6 O3'
_cell_volume   150.31310854
_cell_formula_units_Z   3
loop_
 _symmetry_equiv_pos_site_id
 _symmetry_equiv_pos_as_xyz
  1  'x, y, z'
loop_
 _atom_site_type_symbol
 _atom_site_label
 _atom_site_symmetry_multiplicity
 _atom_site_fract_x
 _atom_site_fract_y
 _atom_site_fract_z
 _atom_site_occupancy
  Li  Li0  1  0.00000000  0.00000000  0.15282556  1
  Li  Li1  1  0.00000000  0.00000000  0.77755628  1
  Li  Li2  1  0.00000000  0.00000000  0.55355371  1
  Ti  Ti3  1  0.50000000  0.00000000  0.55729245  1
  Ti  Ti4  1  0.00000000  0.50000000  0.72978427  1
  Ti  Ti5  1  0.50000000  0.50000000  0.52166205  1
  Se  Se6  1  0.39980201  0.00000000  0.26901193  1
  Se  Se7  1  0.00000000  0.60228802  0.14614023  1
  Se  Se8  1  -0.71221434  -0.71221434  0.71204628  1
  Se  Se9  1  -0.15047455  0.00000000  0.94492767  1
  Se  Se10  1  0.00000000  -0.97148869  0.07175004  1
  Se  Se11  1  0.82064035  0.82064035  0.67440874  1
  O  O12  1  0.00000000  0.00000000  0.61783174  1
  O  O13  1  0.33333333  0.66666667  0.78090522  1
  O  O14  1  0.66666667  0.33333333  0.08704119  1
